/*---------------------------------------------------------------------------*\
| =========                 |                                                 |
| \\      /  F ield         | OpenFOAM: The Open Source CFD Toolbox           |
|  \\    /   O peration     | Version:  2506                                  |
|   \\  /    A nd           | Website:  www.openfoam.com                      |
|    \\/     M anipulation  |                                                 |
\*---------------------------------------------------------------------------*/
Build  : _615aae61-20250627 OPENFOAM=2506 version=2506
Arch   : "LSB;label=32;scalar=64"
Exec   : surfaceFeatureExtract
Date   : Jan 17 2026
Time   : 01:13:19
Host   : tanguy-VMware-Virtual-Platform
PID    : 17302
I/O    : uncollated
Case   : /home/tanguy/OpenFOAM/tanguy-v2506/run/BouleDansGazAvecBoite
nProcs : 1
trapFpe: Floating point exception trapping enabled (FOAM_SIGFPE).
fileModificationChecking : Monitoring run-time modified files using timeStampMaster (fileModificationSkew 5, maxFileModificationPolls 20)
allowSystemOperations : Allowing user-supplied system call operations

// * * * * * * * * * * * * * * * * * * * * * * * * * * * * * * * * * * * * * //
Create time


Note: Feature line extraction only valid on closed manifold surfaces

Reading surfaceFeatureExtractDict

Surfaces     : gas.stl
Output       : gas
Load options : offset
Write options: writeObj=yes writeVTK=off

Statistics:
Triangles    : 5964 in 1 region(s)
Vertices     : 1497
Bounding Box : (0 0 0) (0.1 0.1 0.1)

Constructing feature set from included angle 150
Selecting edges based purely on geometric tests: no

Initial Feature set:
    points : 1497
    edges  : 4477
    of which
        region edges   : 4465
        external edges : 12
        internal edges : 0

Final Feature set:
    points : 1497
    of which
        convex             : 8
        concave            : 0
        mixed              : 1489
        non-feature        : 0
    edges  : 4477
    of which
        external edges     : 12
        internal edges     : 0
        flat edges         : 0
        open edges         : 0
        multiply connected : 4465

Writing extendedFeatureEdgeMesh to "/home/tanguy/OpenFOAM/tanguy-v2506/run/BouleDansGazAvecBoite/constant/extendedFeatureEdgeMesh/gas.extendedFeatureEdgeMesh"

Writing extendedEdgeMesh components to "/home/tanguy/OpenFOAM/tanguy-v2506/run/BouleDansGazAvecBoite/constant/extendedFeatureEdgeMesh/gas"
Writing 8 convex feature points to "/home/tanguy/OpenFOAM/tanguy-v2506/run/BouleDansGazAvecBoite/constant/extendedFeatureEdgeMesh/gas_convexFeaturePts.obj"
Writing 0 concave feature points to "/home/tanguy/OpenFOAM/tanguy-v2506/run/BouleDansGazAvecBoite/constant/extendedFeatureEdgeMesh/gas_concaveFeaturePts.obj"
Writing 1489 mixed feature points to "/home/tanguy/OpenFOAM/tanguy-v2506/run/BouleDansGazAvecBoite/constant/extendedFeatureEdgeMesh/gas_mixedFeaturePts.obj"
Writing 1489 mixed feature point structure to "/home/tanguy/OpenFOAM/tanguy-v2506/run/BouleDansGazAvecBoite/constant/extendedFeatureEdgeMesh/gas_mixedFeaturePtsStructure.obj"
Writing 12 external edges to "/home/tanguy/OpenFOAM/tanguy-v2506/run/BouleDansGazAvecBoite/constant/extendedFeatureEdgeMesh/gas_externalEdges.obj"
Writing 0 internal edges to "/home/tanguy/OpenFOAM/tanguy-v2506/run/BouleDansGazAvecBoite/constant/extendedFeatureEdgeMesh/gas_internalEdges.obj"
Writing 0 flat edges to "/home/tanguy/OpenFOAM/tanguy-v2506/run/BouleDansGazAvecBoite/constant/extendedFeatureEdgeMesh/gas_flatEdges.obj"
Writing 0 open edges to "/home/tanguy/OpenFOAM/tanguy-v2506/run/BouleDansGazAvecBoite/constant/extendedFeatureEdgeMesh/gas_openEdges.obj"
Writing 4465 multiple edges to "/home/tanguy/OpenFOAM/tanguy-v2506/run/BouleDansGazAvecBoite/constant/extendedFeatureEdgeMesh/gas_multipleEdges.obj"
Writing 4465 region edges to "/home/tanguy/OpenFOAM/tanguy-v2506/run/BouleDansGazAvecBoite/constant/extendedFeatureEdgeMesh/gas_regionEdges.obj"
Writing 4477 edge directions to "/home/tanguy/OpenFOAM/tanguy-v2506/run/BouleDansGazAvecBoite/constant/extendedFeatureEdgeMesh/gas_edgeDirections.obj"

Writing featureEdgeMesh to "/home/tanguy/OpenFOAM/tanguy-v2506/run/BouleDansGazAvecBoite/constant/triSurface/gas.eMesh"
Surfaces     : sphere.stl
Output       : sphere
Load options : offset
Write options: writeObj=yes writeVTK=off

Statistics:
Triangles    : 4796 in 1 region(s)
Vertices     : 2399
Bounding Box : (0.0200302 0.0200302 0.02) (0.0799698 0.0799698 0.08)

Constructing feature set from included angle 150
Selecting edges based purely on geometric tests: no

Initial Feature set:
    points : 2
    edges  : 5
    of which
        region edges   : 5
        external edges : 0
        internal edges : 0

Final Feature set:
    points : 4
    of which
        convex             : 0
        concave            : 0
        mixed              : 2
        non-feature        : 2
    edges  : 5
    of which
        external edges     : 0
        internal edges     : 0
        flat edges         : 0
        open edges         : 2
        multiply connected : 3

Writing extendedFeatureEdgeMesh to "/home/tanguy/OpenFOAM/tanguy-v2506/run/BouleDansGazAvecBoite/constant/extendedFeatureEdgeMesh/sphere.extendedFeatureEdgeMesh"

Writing extendedEdgeMesh components to "/home/tanguy/OpenFOAM/tanguy-v2506/run/BouleDansGazAvecBoite/constant/extendedFeatureEdgeMesh/sphere"
Writing 0 convex feature points to "/home/tanguy/OpenFOAM/tanguy-v2506/run/BouleDansGazAvecBoite/constant/extendedFeatureEdgeMesh/sphere_convexFeaturePts.obj"
Writing 0 concave feature points to "/home/tanguy/OpenFOAM/tanguy-v2506/run/BouleDansGazAvecBoite/constant/extendedFeatureEdgeMesh/sphere_concaveFeaturePts.obj"
Writing 2 mixed feature points to "/home/tanguy/OpenFOAM/tanguy-v2506/run/BouleDansGazAvecBoite/constant/extendedFeatureEdgeMesh/sphere_mixedFeaturePts.obj"
Writing 2 mixed feature point structure to "/home/tanguy/OpenFOAM/tanguy-v2506/run/BouleDansGazAvecBoite/constant/extendedFeatureEdgeMesh/sphere_mixedFeaturePtsStructure.obj"
Writing 0 external edges to "/home/tanguy/OpenFOAM/tanguy-v2506/run/BouleDansGazAvecBoite/constant/extendedFeatureEdgeMesh/sphere_externalEdges.obj"
Writing 0 internal edges to "/home/tanguy/OpenFOAM/tanguy-v2506/run/BouleDansGazAvecBoite/constant/extendedFeatureEdgeMesh/sphere_internalEdges.obj"
Writing 0 flat edges to "/home/tanguy/OpenFOAM/tanguy-v2506/run/BouleDansGazAvecBoite/constant/extendedFeatureEdgeMesh/sphere_flatEdges.obj"
Writing 2 open edges to "/home/tanguy/OpenFOAM/tanguy-v2506/run/BouleDansGazAvecBoite/constant/extendedFeatureEdgeMesh/sphere_openEdges.obj"
Writing 3 multiple edges to "/home/tanguy/OpenFOAM/tanguy-v2506/run/BouleDansGazAvecBoite/constant/extendedFeatureEdgeMesh/sphere_multipleEdges.obj"
Writing 5 region edges to "/home/tanguy/OpenFOAM/tanguy-v2506/run/BouleDansGazAvecBoite/constant/extendedFeatureEdgeMesh/sphere_regionEdges.obj"
Writing 5 edge directions to "/home/tanguy/OpenFOAM/tanguy-v2506/run/BouleDansGazAvecBoite/constant/extendedFeatureEdgeMesh/sphere_edgeDirections.obj"

Writing featureEdgeMesh to "/home/tanguy/OpenFOAM/tanguy-v2506/run/BouleDansGazAvecBoite/constant/triSurface/sphere.eMesh"
Surfaces     : box_xmin.stl
Output       : box_xmin
Load options : offset
Write options: writeObj=yes writeVTK=off

Statistics:
Triangles    : 12 in 1 region(s)
Vertices     : 8
Bounding Box : (-0.01 0 0) (0 0.1 0.1)

Constructing feature set from included angle 150
Selecting edges based purely on geometric tests: no

Initial Feature set:
    points : 8
    edges  : 12
    of which
        region edges   : 0
        external edges : 12
        internal edges : 0

Final Feature set:
    points : 8
    of which
        convex             : 8
        concave            : 0
        mixed              : 0
        non-feature        : 0
    edges  : 12
    of which
        external edges     : 12
        internal edges     : 0
        flat edges         : 0
        open edges         : 0
        multiply connected : 0

Writing extendedFeatureEdgeMesh to "/home/tanguy/OpenFOAM/tanguy-v2506/run/BouleDansGazAvecBoite/constant/extendedFeatureEdgeMesh/box_xmin.extendedFeatureEdgeMesh"

Writing extendedEdgeMesh components to "/home/tanguy/OpenFOAM/tanguy-v2506/run/BouleDansGazAvecBoite/constant/extendedFeatureEdgeMesh/box_xmin"
Writing 8 convex feature points to "/home/tanguy/OpenFOAM/tanguy-v2506/run/BouleDansGazAvecBoite/constant/extendedFeatureEdgeMesh/box_xmin_convexFeaturePts.obj"
Writing 0 concave feature points to "/home/tanguy/OpenFOAM/tanguy-v2506/run/BouleDansGazAvecBoite/constant/extendedFeatureEdgeMesh/box_xmin_concaveFeaturePts.obj"
Writing 0 mixed feature points to "/home/tanguy/OpenFOAM/tanguy-v2506/run/BouleDansGazAvecBoite/constant/extendedFeatureEdgeMesh/box_xmin_mixedFeaturePts.obj"
Writing 0 mixed feature point structure to "/home/tanguy/OpenFOAM/tanguy-v2506/run/BouleDansGazAvecBoite/constant/extendedFeatureEdgeMesh/box_xmin_mixedFeaturePtsStructure.obj"
Writing 12 external edges to "/home/tanguy/OpenFOAM/tanguy-v2506/run/BouleDansGazAvecBoite/constant/extendedFeatureEdgeMesh/box_xmin_externalEdges.obj"
Writing 0 internal edges to "/home/tanguy/OpenFOAM/tanguy-v2506/run/BouleDansGazAvecBoite/constant/extendedFeatureEdgeMesh/box_xmin_internalEdges.obj"
Writing 0 flat edges to "/home/tanguy/OpenFOAM/tanguy-v2506/run/BouleDansGazAvecBoite/constant/extendedFeatureEdgeMesh/box_xmin_flatEdges.obj"
Writing 0 open edges to "/home/tanguy/OpenFOAM/tanguy-v2506/run/BouleDansGazAvecBoite/constant/extendedFeatureEdgeMesh/box_xmin_openEdges.obj"
Writing 0 multiple edges to "/home/tanguy/OpenFOAM/tanguy-v2506/run/BouleDansGazAvecBoite/constant/extendedFeatureEdgeMesh/box_xmin_multipleEdges.obj"
Writing 0 region edges to "/home/tanguy/OpenFOAM/tanguy-v2506/run/BouleDansGazAvecBoite/constant/extendedFeatureEdgeMesh/box_xmin_regionEdges.obj"
Writing 12 edge directions to "/home/tanguy/OpenFOAM/tanguy-v2506/run/BouleDansGazAvecBoite/constant/extendedFeatureEdgeMesh/box_xmin_edgeDirections.obj"

Writing featureEdgeMesh to "/home/tanguy/OpenFOAM/tanguy-v2506/run/BouleDansGazAvecBoite/constant/triSurface/box_xmin.eMesh"
Surfaces     : box_xmax.stl
Output       : box_xmax
Load options : offset
Write options: writeObj=yes writeVTK=off

Statistics:
Triangles    : 12 in 1 region(s)
Vertices     : 8
Bounding Box : (0.1 0 0) (0.11 0.1 0.1)

Constructing feature set from included angle 150
Selecting edges based purely on geometric tests: no

Initial Feature set:
    points : 8
    edges  : 12
    of which
        region edges   : 0
        external edges : 12
        internal edges : 0

Final Feature set:
    points : 8
    of which
        convex             : 8
        concave            : 0
        mixed              : 0
        non-feature        : 0
    edges  : 12
    of which
        external edges     : 12
        internal edges     : 0
        flat edges         : 0
        open edges         : 0
        multiply connected : 0

Writing extendedFeatureEdgeMesh to "/home/tanguy/OpenFOAM/tanguy-v2506/run/BouleDansGazAvecBoite/constant/extendedFeatureEdgeMesh/box_xmax.extendedFeatureEdgeMesh"

Writing extendedEdgeMesh components to "/home/tanguy/OpenFOAM/tanguy-v2506/run/BouleDansGazAvecBoite/constant/extendedFeatureEdgeMesh/box_xmax"
Writing 8 convex feature points to "/home/tanguy/OpenFOAM/tanguy-v2506/run/BouleDansGazAvecBoite/constant/extendedFeatureEdgeMesh/box_xmax_convexFeaturePts.obj"
Writing 0 concave feature points to "/home/tanguy/OpenFOAM/tanguy-v2506/run/BouleDansGazAvecBoite/constant/extendedFeatureEdgeMesh/box_xmax_concaveFeaturePts.obj"
Writing 0 mixed feature points to "/home/tanguy/OpenFOAM/tanguy-v2506/run/BouleDansGazAvecBoite/constant/extendedFeatureEdgeMesh/box_xmax_mixedFeaturePts.obj"
Writing 0 mixed feature point structure to "/home/tanguy/OpenFOAM/tanguy-v2506/run/BouleDansGazAvecBoite/constant/extendedFeatureEdgeMesh/box_xmax_mixedFeaturePtsStructure.obj"
Writing 12 external edges to "/home/tanguy/OpenFOAM/tanguy-v2506/run/BouleDansGazAvecBoite/constant/extendedFeatureEdgeMesh/box_xmax_externalEdges.obj"
Writing 0 internal edges to "/home/tanguy/OpenFOAM/tanguy-v2506/run/BouleDansGazAvecBoite/constant/extendedFeatureEdgeMesh/box_xmax_internalEdges.obj"
Writing 0 flat edges to "/home/tanguy/OpenFOAM/tanguy-v2506/run/BouleDansGazAvecBoite/constant/extendedFeatureEdgeMesh/box_xmax_flatEdges.obj"
Writing 0 open edges to "/home/tanguy/OpenFOAM/tanguy-v2506/run/BouleDansGazAvecBoite/constant/extendedFeatureEdgeMesh/box_xmax_openEdges.obj"
Writing 0 multiple edges to "/home/tanguy/OpenFOAM/tanguy-v2506/run/BouleDansGazAvecBoite/constant/extendedFeatureEdgeMesh/box_xmax_multipleEdges.obj"
Writing 0 region edges to "/home/tanguy/OpenFOAM/tanguy-v2506/run/BouleDansGazAvecBoite/constant/extendedFeatureEdgeMesh/box_xmax_regionEdges.obj"
Writing 12 edge directions to "/home/tanguy/OpenFOAM/tanguy-v2506/run/BouleDansGazAvecBoite/constant/extendedFeatureEdgeMesh/box_xmax_edgeDirections.obj"

Writing featureEdgeMesh to "/home/tanguy/OpenFOAM/tanguy-v2506/run/BouleDansGazAvecBoite/constant/triSurface/box_xmax.eMesh"
Surfaces     : external_box_xmin.stl
Output       : external_box_xmin
Load options : offset
Write options: writeObj=yes writeVTK=off

Statistics:
Triangles    : 2 in 1 region(s)
Vertices     : 4
Bounding Box : (-0.01 0 0) (-0.01 0.1 0.1)

Constructing feature set from included angle 150
Selecting edges based purely on geometric tests: no

Initial Feature set:
    points : 4
    edges  : 4
    of which
        region edges   : 4
        external edges : 0
        internal edges : 0

Final Feature set:
    points : 4
    of which
        convex             : 0
        concave            : 0
        mixed              : 4
        non-feature        : 0
    edges  : 4
    of which
        external edges     : 0
        internal edges     : 0
        flat edges         : 0
        open edges         : 4
        multiply connected : 0

Writing extendedFeatureEdgeMesh to "/home/tanguy/OpenFOAM/tanguy-v2506/run/BouleDansGazAvecBoite/constant/extendedFeatureEdgeMesh/external_box_xmin.extendedFeatureEdgeMesh"

Writing extendedEdgeMesh components to "/home/tanguy/OpenFOAM/tanguy-v2506/run/BouleDansGazAvecBoite/constant/extendedFeatureEdgeMesh/external_box_xmin"
Writing 0 convex feature points to "/home/tanguy/OpenFOAM/tanguy-v2506/run/BouleDansGazAvecBoite/constant/extendedFeatureEdgeMesh/external_box_xmin_convexFeaturePts.obj"
Writing 0 concave feature points to "/home/tanguy/OpenFOAM/tanguy-v2506/run/BouleDansGazAvecBoite/constant/extendedFeatureEdgeMesh/external_box_xmin_concaveFeaturePts.obj"
Writing 4 mixed feature points to "/home/tanguy/OpenFOAM/tanguy-v2506/run/BouleDansGazAvecBoite/constant/extendedFeatureEdgeMesh/external_box_xmin_mixedFeaturePts.obj"
Writing 4 mixed feature point structure to "/home/tanguy/OpenFOAM/tanguy-v2506/run/BouleDansGazAvecBoite/constant/extendedFeatureEdgeMesh/external_box_xmin_mixedFeaturePtsStructure.obj"
Writing 0 external edges to "/home/tanguy/OpenFOAM/tanguy-v2506/run/BouleDansGazAvecBoite/constant/extendedFeatureEdgeMesh/external_box_xmin_externalEdges.obj"
Writing 0 internal edges to "/home/tanguy/OpenFOAM/tanguy-v2506/run/BouleDansGazAvecBoite/constant/extendedFeatureEdgeMesh/external_box_xmin_internalEdges.obj"
Writing 0 flat edges to "/home/tanguy/OpenFOAM/tanguy-v2506/run/BouleDansGazAvecBoite/constant/extendedFeatureEdgeMesh/external_box_xmin_flatEdges.obj"
Writing 4 open edges to "/home/tanguy/OpenFOAM/tanguy-v2506/run/BouleDansGazAvecBoite/constant/extendedFeatureEdgeMesh/external_box_xmin_openEdges.obj"
Writing 0 multiple edges to "/home/tanguy/OpenFOAM/tanguy-v2506/run/BouleDansGazAvecBoite/constant/extendedFeatureEdgeMesh/external_box_xmin_multipleEdges.obj"
Writing 4 region edges to "/home/tanguy/OpenFOAM/tanguy-v2506/run/BouleDansGazAvecBoite/constant/extendedFeatureEdgeMesh/external_box_xmin_regionEdges.obj"
Writing 4 edge directions to "/home/tanguy/OpenFOAM/tanguy-v2506/run/BouleDansGazAvecBoite/constant/extendedFeatureEdgeMesh/external_box_xmin_edgeDirections.obj"

Writing featureEdgeMesh to "/home/tanguy/OpenFOAM/tanguy-v2506/run/BouleDansGazAvecBoite/constant/triSurface/external_box_xmin.eMesh"
Surfaces     : external_box_xmax.stl
Output       : external_box_xmax
Load options : offset
Write options: writeObj=yes writeVTK=off

Statistics:
Triangles    : 2 in 1 region(s)
Vertices     : 4
Bounding Box : (0.11 0 0) (0.11 0.1 0.1)

Constructing feature set from included angle 150
Selecting edges based purely on geometric tests: no

Initial Feature set:
    points : 4
    edges  : 4
    of which
        region edges   : 4
        external edges : 0
        internal edges : 0

Final Feature set:
    points : 4
    of which
        convex             : 0
        concave            : 0
        mixed              : 4
        non-feature        : 0
    edges  : 4
    of which
        external edges     : 0
        internal edges     : 0
        flat edges         : 0
        open edges         : 4
        multiply connected : 0

Writing extendedFeatureEdgeMesh to "/home/tanguy/OpenFOAM/tanguy-v2506/run/BouleDansGazAvecBoite/constant/extendedFeatureEdgeMesh/external_box_xmax.extendedFeatureEdgeMesh"

Writing extendedEdgeMesh components to "/home/tanguy/OpenFOAM/tanguy-v2506/run/BouleDansGazAvecBoite/constant/extendedFeatureEdgeMesh/external_box_xmax"
Writing 0 convex feature points to "/home/tanguy/OpenFOAM/tanguy-v2506/run/BouleDansGazAvecBoite/constant/extendedFeatureEdgeMesh/external_box_xmax_convexFeaturePts.obj"
Writing 0 concave feature points to "/home/tanguy/OpenFOAM/tanguy-v2506/run/BouleDansGazAvecBoite/constant/extendedFeatureEdgeMesh/external_box_xmax_concaveFeaturePts.obj"
Writing 4 mixed feature points to "/home/tanguy/OpenFOAM/tanguy-v2506/run/BouleDansGazAvecBoite/constant/extendedFeatureEdgeMesh/external_box_xmax_mixedFeaturePts.obj"
Writing 4 mixed feature point structure to "/home/tanguy/OpenFOAM/tanguy-v2506/run/BouleDansGazAvecBoite/constant/extendedFeatureEdgeMesh/external_box_xmax_mixedFeaturePtsStructure.obj"
Writing 0 external edges to "/home/tanguy/OpenFOAM/tanguy-v2506/run/BouleDansGazAvecBoite/constant/extendedFeatureEdgeMesh/external_box_xmax_externalEdges.obj"
Writing 0 internal edges to "/home/tanguy/OpenFOAM/tanguy-v2506/run/BouleDansGazAvecBoite/constant/extendedFeatureEdgeMesh/external_box_xmax_internalEdges.obj"
Writing 0 flat edges to "/home/tanguy/OpenFOAM/tanguy-v2506/run/BouleDansGazAvecBoite/constant/extendedFeatureEdgeMesh/external_box_xmax_flatEdges.obj"
Writing 4 open edges to "/home/tanguy/OpenFOAM/tanguy-v2506/run/BouleDansGazAvecBoite/constant/extendedFeatureEdgeMesh/external_box_xmax_openEdges.obj"
Writing 0 multiple edges to "/home/tanguy/OpenFOAM/tanguy-v2506/run/BouleDansGazAvecBoite/constant/extendedFeatureEdgeMesh/external_box_xmax_multipleEdges.obj"
Writing 4 region edges to "/home/tanguy/OpenFOAM/tanguy-v2506/run/BouleDansGazAvecBoite/constant/extendedFeatureEdgeMesh/external_box_xmax_regionEdges.obj"
Writing 4 edge directions to "/home/tanguy/OpenFOAM/tanguy-v2506/run/BouleDansGazAvecBoite/constant/extendedFeatureEdgeMesh/external_box_xmax_edgeDirections.obj"

Writing featureEdgeMesh to "/home/tanguy/OpenFOAM/tanguy-v2506/run/BouleDansGazAvecBoite/constant/triSurface/external_box_xmax.eMesh"
ExecutionTime = 0.13 s  ClockTime = 0 s

End

