/*---------------------------------------------------------------------------*\
| =========                 |                                                 |
| \\      /  F ield         | OpenFOAM: The Open Source CFD Toolbox           |
|  \\    /   O peration     | Version:  2506                                  |
|   \\  /    A nd           | Website:  www.openfoam.com                      |
|    \\/     M anipulation  |                                                 |
\*---------------------------------------------------------------------------*/
Build  : _615aae61-20250627 OPENFOAM=2506 version=2506
Arch   : "LSB;label=32;scalar=64"
Exec   : reconstructPar -allRegions
Date   : Jan 19 2026
Time   : 15:56:22
Host   : tanguy-VMware-Virtual-Platform
PID    : 10870
I/O    : uncollated
Case   : /home/tanguy/OpenFOAM/tanguy-v2506/run/BouleDansGazAvecBoite
nProcs : 1
trapFpe: Floating point exception trapping enabled (FOAM_SIGFPE).
fileModificationChecking : Monitoring run-time modified files using timeStampMaster (fileModificationSkew 5, maxFileModificationPolls 20)
allowSystemOperations : Allowing user-supplied system call operations

// * * * * * * * * * * * * * * * * * * * * * * * * * * * * * * * * * * * * * //
Create time

Using all regions: (gas sphere box_xmin box_xmax)


Reconstructing fields
region=gas

Time = 25

Reconstructing FV fields

    Reconstructing volScalarFields

        Qdot
        T
        p
        p_rgh
        rho
        wallHeatFlux

    Reconstructing volVectorFields

        U

    Reconstructing surfaceScalarFields

        phi

Reconstructing point fields

No point fields

No lagrangian fields

No FA fields

Time = 50

Reconstructing FV fields

    Reconstructing volScalarFields

        Qdot
        T
        p
        p_rgh
        rho
        wallHeatFlux

    Reconstructing volVectorFields

        U

    Reconstructing surfaceScalarFields

        phi

Reconstructing point fields

No point fields

No lagrangian fields

No FA fields

Time = 75

Reconstructing FV fields

    Reconstructing volScalarFields

        Qdot
        T
        p
        p_rgh
        rho
        wallHeatFlux

    Reconstructing volVectorFields

        U

    Reconstructing surfaceScalarFields

        phi

Reconstructing point fields

No point fields

No lagrangian fields

No FA fields

Time = 100

Reconstructing FV fields

    Reconstructing volScalarFields

        Qdot
        T
        p
        p_rgh
        rho
        wallHeatFlux

    Reconstructing volVectorFields

        U

    Reconstructing surfaceScalarFields

        phi

Reconstructing point fields

No point fields

No lagrangian fields

No FA fields

Time = 125

Reconstructing FV fields

    Reconstructing volScalarFields

        Qdot
        T
        p
        p_rgh
        rho
        wallHeatFlux

    Reconstructing volVectorFields

        U

    Reconstructing surfaceScalarFields

        phi

Reconstructing point fields

No point fields

No lagrangian fields

No FA fields

Time = 150

Reconstructing FV fields

    Reconstructing volScalarFields

        Qdot
        T
        p
        p_rgh
        rho
        wallHeatFlux

    Reconstructing volVectorFields

        U

    Reconstructing surfaceScalarFields

        phi

Reconstructing point fields

No point fields

No lagrangian fields

No FA fields

Time = 175

Reconstructing FV fields

    Reconstructing volScalarFields

        Qdot
        T
        p
        p_rgh
        rho
        wallHeatFlux

    Reconstructing volVectorFields

        U

    Reconstructing surfaceScalarFields

        phi

Reconstructing point fields

No point fields

No lagrangian fields

No FA fields

Time = 200

Reconstructing FV fields

    Reconstructing volScalarFields

        Qdot
        T
        p
        p_rgh
        rho
        wallHeatFlux

    Reconstructing volVectorFields

        U

    Reconstructing surfaceScalarFields

        phi

Reconstructing point fields

No point fields

No lagrangian fields

No FA fields

Time = 225

Reconstructing FV fields

    Reconstructing volScalarFields

        Qdot
        T
        p
        p_rgh
        rho
        wallHeatFlux

    Reconstructing volVectorFields

        U

    Reconstructing surfaceScalarFields

        phi

Reconstructing point fields

No point fields

No lagrangian fields

No FA fields

Time = 250

Reconstructing FV fields

    Reconstructing volScalarFields

        Qdot
        T
        p
        p_rgh
        rho
        wallHeatFlux

    Reconstructing volVectorFields

        U

    Reconstructing surfaceScalarFields

        phi

Reconstructing point fields

No point fields

No lagrangian fields

No FA fields



Reconstructing fields
region=sphere

Time = 25

Reconstructing FV fields

    Reconstructing volScalarFields

        T
        p

Reconstructing point fields

No point fields

No lagrangian fields

No FA fields

Time = 50

Reconstructing FV fields

    Reconstructing volScalarFields

        T
        p

Reconstructing point fields

No point fields

No lagrangian fields

No FA fields

Time = 75

Reconstructing FV fields

    Reconstructing volScalarFields

        T
        p

Reconstructing point fields

No point fields

No lagrangian fields

No FA fields

Time = 100

Reconstructing FV fields

    Reconstructing volScalarFields

        T
        p

Reconstructing point fields

No point fields

No lagrangian fields

No FA fields

Time = 125

Reconstructing FV fields

    Reconstructing volScalarFields

        T
        p

Reconstructing point fields

No point fields

No lagrangian fields

No FA fields

Time = 150

Reconstructing FV fields

    Reconstructing volScalarFields

        T
        p

Reconstructing point fields

No point fields

No lagrangian fields

No FA fields

Time = 175

Reconstructing FV fields

    Reconstructing volScalarFields

        T
        p

Reconstructing point fields

No point fields

No lagrangian fields

No FA fields

Time = 200

Reconstructing FV fields

    Reconstructing volScalarFields

        T
        p

Reconstructing point fields

No point fields

No lagrangian fields

No FA fields

Time = 225

Reconstructing FV fields

    Reconstructing volScalarFields

        T
        p

Reconstructing point fields

No point fields

No lagrangian fields

No FA fields

Time = 250

Reconstructing FV fields

    Reconstructing volScalarFields

        T
        p

Reconstructing point fields

No point fields

No lagrangian fields

No FA fields



Reconstructing fields
region=box_xmin

Time = 25

Reconstructing FV fields

    Reconstructing volScalarFields

        T
        p
        wallHeatFlux

Reconstructing point fields

No point fields

No lagrangian fields

No FA fields

Time = 50

Reconstructing FV fields

    Reconstructing volScalarFields

        T
        p
        wallHeatFlux

Reconstructing point fields

No point fields

No lagrangian fields

No FA fields

Time = 75

Reconstructing FV fields

    Reconstructing volScalarFields

        T
        p
        wallHeatFlux

Reconstructing point fields

No point fields

No lagrangian fields

No FA fields

Time = 100

Reconstructing FV fields

    Reconstructing volScalarFields

        T
        p
        wallHeatFlux

Reconstructing point fields

No point fields

No lagrangian fields

No FA fields

Time = 125

Reconstructing FV fields

    Reconstructing volScalarFields

        T
        p
        wallHeatFlux

Reconstructing point fields

No point fields

No lagrangian fields

No FA fields

Time = 150

Reconstructing FV fields

    Reconstructing volScalarFields

        T
        p
        wallHeatFlux

Reconstructing point fields

No point fields

No lagrangian fields

No FA fields

Time = 175

Reconstructing FV fields

    Reconstructing volScalarFields

        T
        p
        wallHeatFlux

Reconstructing point fields

No point fields

No lagrangian fields

No FA fields

Time = 200

Reconstructing FV fields

    Reconstructing volScalarFields

        T
        p
        wallHeatFlux

Reconstructing point fields

No point fields

No lagrangian fields

No FA fields

Time = 225

Reconstructing FV fields

    Reconstructing volScalarFields

        T
        p
        wallHeatFlux

Reconstructing point fields

No point fields

No lagrangian fields

No FA fields

Time = 250

Reconstructing FV fields

    Reconstructing volScalarFields

        T
        p
        wallHeatFlux

Reconstructing point fields

No point fields

No lagrangian fields

No FA fields



Reconstructing fields
region=box_xmax

Time = 25

Reconstructing FV fields

    Reconstructing volScalarFields

        T
        p
        wallHeatFlux

Reconstructing point fields

No point fields

No lagrangian fields

No FA fields

Time = 50

Reconstructing FV fields

    Reconstructing volScalarFields

        T
        p
        wallHeatFlux

Reconstructing point fields

No point fields

No lagrangian fields

No FA fields

Time = 75

Reconstructing FV fields

    Reconstructing volScalarFields

        T
        p
        wallHeatFlux

Reconstructing point fields

No point fields

No lagrangian fields

No FA fields

Time = 100

Reconstructing FV fields

    Reconstructing volScalarFields

        T
        p
        wallHeatFlux

Reconstructing point fields

No point fields

No lagrangian fields

No FA fields

Time = 125

Reconstructing FV fields

    Reconstructing volScalarFields

        T
        p
        wallHeatFlux

Reconstructing point fields

No point fields

No lagrangian fields

No FA fields

Time = 150

Reconstructing FV fields

    Reconstructing volScalarFields

        T
        p
        wallHeatFlux

Reconstructing point fields

No point fields

No lagrangian fields

No FA fields

Time = 175

Reconstructing FV fields

    Reconstructing volScalarFields

        T
        p
        wallHeatFlux

Reconstructing point fields

No point fields

No lagrangian fields

No FA fields

Time = 200

Reconstructing FV fields

    Reconstructing volScalarFields

        T
        p
        wallHeatFlux

Reconstructing point fields

No point fields

No lagrangian fields

No FA fields

Time = 225

Reconstructing FV fields

    Reconstructing volScalarFields

        T
        p
        wallHeatFlux

Reconstructing point fields

No point fields

No lagrangian fields

No FA fields

Time = 250

Reconstructing FV fields

    Reconstructing volScalarFields

        T
        p
        wallHeatFlux

Reconstructing point fields

No point fields

No lagrangian fields

No FA fields


End

